@<TRIPOS>MOLECULE
HHph6_RESPopt.out
 39 40 0 0 0
SMALL
MULLIKEN_CHARGES

@<TRIPOS>ATOM
      1 N          -0.2605    0.4000    0.0282 N.4     1  HIS1       -0.4354
      2 CA          1.2066    0.1674   -0.0095 C.3     1  HIS1       -0.0088
      3 C           1.6665    0.1587    1.4484 C.2     1  HIS1       -0.1809
      4 O           0.8015    0.3220    2.3335 O.2     1  HIS1       -0.5629
      5 CB          1.9015    1.2596   -0.8417 C.3     1  HIS1       -0.5535
      6 CG          2.9642    0.6669   -1.6961 C.2     1  HIS1       -0.1779
      7 ND1         2.6437   -0.1054   -2.7988 N.pl3   1  HIS1       -0.1577
      8 CE1         3.7528   -0.5122   -3.4145 C.3     1  HIS1        0.3316
      9 NE2         4.7833   -0.0545   -2.7050 N.pl3   1  HIS1       -0.1809
     10 CD2         4.3301    0.6807   -1.6268 C.2     1  HIS1       -0.0174
     11 N           2.9667    0.0024    1.6393 N.am    2  HIS2       -0.1593
     12 CA          3.6734    0.1204    2.9109 C.3     2  HIS2       -0.3969
     13 C           5.1893    0.2962    2.5612 C.2     2  HIS2        0.4551
     14 O           5.4721    0.3312    1.3271 O.co2   2  HIS2       -0.6678
     15 CB          3.4323   -1.0992    3.8423 C.3     2  HIS2       -0.7226
     16 CG          2.5759   -0.8088    5.0288 C.2     2  HIS2        0.1576
     17 ND1         1.3293   -0.2162    4.9160 N.pl3   2  HIS2       -0.2808
     18 CE1         0.7654   -0.1094    6.1181 C.3     2  HIS2        0.2968
     19 NE2         1.6252   -0.6089    7.0090 N.pl3   2  HIS2       -0.2230
     20 CD2         2.7642   -1.0491    6.3634 C.2     2  HIS2        0.0293
     21 OXT         5.9670    0.3923    3.5379 O.co2   2  HIS2       -0.6263
     22 H1         -0.7099   -0.3060    0.6148 H       1  HIS1        0.4377
     23 H2         -0.6621    0.3804   -0.9098 H       1  HIS1        0.4554
     24 H3         -0.4623    1.3034    0.4649 H       1  HIS1        0.4653
     25 HA          1.3719   -0.8136   -0.4536 H       1  HIS1        0.3080
     26 HB1         2.3500    2.0113   -0.1928 H       1  HIS1        0.2487
     27 HB2         1.1587    1.7530   -1.4736 H       1  HIS1        0.2416
     28 HD1         1.7119   -0.2372   -3.1724 H       1  HIS1        0.4155
     29 HE1         3.8018   -1.0997   -4.3175 H       1  HIS1        0.2786
     30 HE2         5.7571   -0.2234   -2.9309 H       1  HIS1        0.4232
     31 HD2         4.9960    1.1123   -0.8970 H       1  HIS1        0.2459
     32 H           3.6253   -0.0147    0.8552 H       2  HIS2        0.4517
     33 HA          3.3429    1.0370    3.4112 H       2  HIS2        0.2359
     34 HB1         4.3890   -1.4687    4.2105 H       2  HIS2        0.2332
     35 HB2         2.9681   -1.8901    3.2430 H       2  HIS2        0.2217
     36 HD1         0.9331    0.0664    4.0033 H       2  HIS2        0.5078
     37 HE1        -0.2059    0.2948    6.3404 H       2  HIS2        0.2573
     38 HE2         1.4557   -0.6504    8.0073 H       2  HIS2        0.4261
     39 HD2         3.5993   -1.4792    6.8888 H       2  HIS2        0.2278
@<TRIPOS>BOND
     1    29     8    1
     2     8     7    1
     3     8     9    2
     4    28     7    1
     5    30     9    1
     6     7     6    1
     7     9    10    1
     8     6    10    2
     9     6     5    1
    10    10    31    1
    11    27     5    1
    12    23     1    1
    13     5    26    1
    14     5     2    1
    15    25     2    1
    16     2     1    1
    17     2     3    1
    18     1    24    1
    19     1    22    1
    20    32    11    1
    21    14    13   ar
    22     3    11   am
    23     3     4    2
    24    11    12    1
    25    13    12    1
    26    13    21   ar
    27    12    33    1
    28    12    15    1
    29    35    15    1
    30    15    34    1
    31    15    16    1
    32    36    17    1
    33    17    16    1
    34    17    18    1
    35    16    20    2
    36    18    37    1
    37    18    19    2
    38    20    39    1
    39    20    19    1
    40    19    38    1
