@<TRIPOS>MOLECULE
HKph6_RESPopt.out
 43 43 0 0 0
SMALL
MULLIKEN_CHARGES

@<TRIPOS>ATOM
      1 N          -0.3298    0.4617    0.0499 N.4     1  HIS1       -0.4523
      2 CA          1.1223    0.1485   -0.0541 C.3     1  HIS1       -0.1513
      3 C           1.6303    0.0000    1.3871 C.2     1  HIS1        0.0036
      4 O           0.8303    0.1607    2.3230 O.2     1  HIS1       -0.5585
      5 CB          1.8407    1.2820   -0.8158 C.3     1  HIS1       -0.4854
      6 CG          2.9784    0.7547   -1.6161 C.2     1  HIS1        0.0702
      7 ND1         2.7610   -0.0541   -2.7185 N.pl3   1  HIS1       -0.1731
      8 CE1         3.9210   -0.4089   -3.2687 C.3     1  HIS1        0.3537
      9 NE2         4.8863    0.1199   -2.5151 N.pl3   1  HIS1       -0.1326
     10 CD2         4.3355    0.8526   -1.4810 C.2     1  HIS1       -0.3547
     11 N           2.9283   -0.2604    1.5290 N.am    2  LYS2       -0.1176
     12 CA          3.6158   -0.2108    2.8200 C.3     2  LYS2       -0.5245
     13 C           5.1296    0.0082    2.5376 C.2     2  LYS2        0.4074
     14 O           5.4894   -0.0357    1.3218 O.co2   2  LYS2       -0.6612
     15 CB          3.3036   -1.4707    3.6529 C.3     2  LYS2        0.1798
     16 CG          3.6141   -1.3318    5.1460 C.3     2  LYS2       -0.5573
     17 CD          2.9939   -2.4718    5.9572 C.3     2  LYS2       -0.3366
     18 CE          3.3195   -2.3411    7.4367 C.3     2  LYS2       -0.4556
     19 NZ          2.5813   -3.3901    8.2115 N.4     2  LYS2       -0.4111
     20 OXT         5.8597    0.2171    3.5394 O.co2   2  LYS2       -0.6427
     21 H1         -0.8004   -0.2478    0.6156 H       1  HIS1        0.4382
     22 H2         -0.7599    0.4983   -0.8750 H       1  HIS1        0.4426
     23 H3         -0.4785    1.3585    0.5198 H       1  HIS1        0.4674
     24 HA          1.1958   -0.7956   -0.6038 H       1  HIS1        0.2777
     25 HB1         2.2156    2.0345   -0.1187 H       1  HIS1        0.2434
     26 HB2         1.1226    1.7688   -1.4828 H       1  HIS1        0.2437
     27 HD1         1.8464   -0.2632   -3.1071 H       1  HIS1        0.4175
     28 HE1         4.0497   -1.0158   -4.1508 H       1  HIS1        0.2764
     29 HE2         5.8793    0.0145   -2.6943 H       1  HIS1        0.4221
     30 HD2         4.9379    1.3277   -0.7256 H       1  HIS1        0.2239
     31 H           3.5656   -0.2979    0.7349 H       2  LYS2        0.5285
     32 HA          3.2427    0.6627    3.3683 H       2  LYS2        0.2186
     33 HB1         3.8376   -2.3322    3.2309 H       2  LYS2        0.1594
     34 HB2         2.2313   -1.6652    3.5400 H       2  LYS2        0.2704
     35 HG1         3.2128   -0.3760    5.5096 H       2  LYS2        0.1280
     36 HG2         4.6959   -1.2960    5.3057 H       2  LYS2        0.1771
     37 HD1         3.3641   -3.4426    5.6009 H       2  LYS2        0.1775
     38 HD2         1.9032   -2.4671    5.8300 H       2  LYS2        0.1471
     39 HE1         2.9950   -1.3786    7.8313 H       2  LYS2        0.2251
     40 HE2         4.3823   -2.4739    7.6371 H       2  LYS2        0.2217
     41 HZ1         1.5731   -3.2380    8.1347 H       2  LYS2        0.4272
     42 HZ2         2.8217   -3.3742    9.2034 H       2  LYS2        0.4402
     43 HZ3         2.7685   -4.3245    7.8432 H       2  LYS2        0.4263
@<TRIPOS>BOND
     1    28     8    1
     2     8     7    1
     3     8     9    2
     4    27     7    1
     5     7     6    1
     6    29     9    1
     7     9    10    1
     8     6    10    2
     9     6     5    1
    10    26     5    1
    11    10    30    1
    12    22     1    1
    13     5    25    1
    14     5     2    1
    15    24     2    1
    16     2     1    1
    17     2     3    1
    18     1    23    1
    19     1    21    1
    20    31    11    1
    21    14    13   ar
    22     3    11   am
    23     3     4    2
    24    11    12    1
    25    13    12    1
    26    13    20   ar
    27    12    32    1
    28    12    15    1
    29    33    15    1
    30    34    15    1
    31    15    16    1
    32    16    36    1
    33    16    35    1
    34    16    17    1
    35    37    17    1
    36    38    17    1
    37    17    18    1
    38    18    40    1
    39    18    39    1
    40    18    19    1
    41    43    19    1
    42    41    19    1
    43    19    42    1

