@<TRIPOS>MOLECULE
HR_RESPopt.out
 45 45 0 0 0
SMALL
MULLIKEN_CHARGES

@<TRIPOS>ATOM
      1 N          -0.4226    0.7143   -0.3046 N.4     1  HIS1       -0.4370
      2 CA          0.9969    0.2669   -0.2341 C.3     1  HIS1       -0.2403
      3 C           1.3545    0.2143    1.2590 C.2     1  HIS1        0.1658
      4 O           0.4683    0.4494    2.0958 O.2     1  HIS1       -0.5530
      5 CB          1.8575    1.2642   -1.0296 C.3     1  HIS1       -0.4561
      6 CG          3.0896    0.6298   -1.5645 C.2     1  HIS1        0.2482
      7 ND1         3.0245   -0.3790   -2.5120 N.pl3   1  HIS1       -0.1778
      8 CE1         4.2471   -0.8351   -2.7846 C.3     1  HIS1        0.3651
      9 NE2         5.0994   -0.1439   -2.0258 N.pl3   1  HIS1       -0.1005
     10 CD2         4.4125    0.7708   -1.2526 C.2     1  HIS1       -0.5786
     11 N           2.6294   -0.0469    1.5402 N.am    2  ARG2       -0.1039
     12 CA          3.2092    0.0384    2.8781 C.3     2  ARG2       -0.6349
     13 C           4.7407    0.2485    2.6987 C.2     2  ARG2        0.3929
     14 O           5.2103   -0.0157    1.5507 O.co2   2  ARG2       -0.6448
     15 CB          2.8683   -1.2207    3.7004 C.3     2  ARG2        0.0350
     16 CG          3.2121   -1.0984    5.1867 C.3     2  ARG2       -0.3187
     17 CD          2.7472   -2.3309    5.9604 C.3     2  ARG2       -0.5130
     18 NE          3.0878   -2.2197    7.3787 N.pl3   2  ARG2       -0.2979
     19 CZ          2.2594   -2.3359    8.4181 C.cat   2  ARG2        0.3664
     20 NH2         2.7575   -2.3009    9.6606 N.pl3   2  ARG2       -0.4832
     21 NH1         0.9357   -2.4691    8.2580 N.pl3   2  ARG2       -0.5537
     22 OXT         5.3742    0.6526    3.7064 O.co2   2  ARG2       -0.6379
     23 H1         -1.0373    0.0398    0.1576 H       1  HIS1        0.4472
     24 H2         -0.7051    0.8125   -1.2791 H       1  HIS1        0.4352
     25 H3         -0.5447    1.6109    0.1749 H       1  HIS1        0.4640
     26 HA          1.0398   -0.7251   -0.6919 H       1  HIS1        0.2712
     27 HB1         2.1319    2.1176   -0.4074 H       1  HIS1        0.2465
     28 HB2         1.2583    1.6249   -1.8715 H       1  HIS1        0.2320
     29 HD1         2.1716   -0.7342   -2.9313 H       1  HIS1        0.4162
     30 HE1         4.4986   -1.6020   -3.4969 H       1  HIS1        0.2747
     31 HE2         6.1053   -0.2748   -2.0275 H       1  HIS1        0.4223
     32 HD2         4.9078    1.3938   -0.5294 H       1  HIS1        0.2144
     33 H           3.3283   -0.2087    0.8157 H       2  ARG2        0.5095
     34 HA          2.7885    0.9143    3.3835 H       2  ARG2        0.2113
     35 HB1         3.3820   -2.0866    3.2616 H       2  ARG2        0.1440
     36 HB2         1.7912   -1.3930    3.5970 H       2  ARG2        0.2280
     37 HG1         2.7274   -0.2091    5.6094 H       2  ARG2        0.1713
     38 HG2         4.2903   -0.9694    5.3176 H       2  ARG2        0.2062
     39 HD1         3.2153   -3.2352    5.5574 H       2  ARG2        0.2281
     40 HD2         1.6682   -2.4549    5.8566 H       2  ARG2        0.1198
     41 HE          4.0724   -2.1202    7.5926 H       2  ARG2        0.3909
     42 HH21        3.7478   -2.1793    9.8145 H       2  ARG2        0.3715
     43 HH22        2.1426   -2.3068   10.4614 H       2  ARG2        0.3977
     44 HH11        0.5217   -2.5996    7.3484 H       2  ARG2        0.3623
     45 HH12        0.3672   -2.6961    9.0611 H       2  ARG2        0.3938
@<TRIPOS>BOND
     1    30     8    1
     2    29     7    1
     3     8     7    1
     4     8     9    2
     5     7     6    1
     6    31     9    1
     7     9    10    1
     8    28     5    1
     9     6    10    2
    10     6     5    1
    11    24     1    1
    12    10    32    1
    13     5    27    1
    14     5     2    1
    15    26     2    1
    16     1     2    1
    17     1    23    1
    18     1    25    1
    19     2     3    1
    20    33    11    1
    21     3    11   am
    22     3     4    2
    23    11    12    1
    24    14    13   ar
    25    13    12    1
    26    13    22   ar
    27    12    34    1
    28    12    15    1
    29    35    15    1
    30    36    15    1
    31    15    16    1
    32    16    38    1
    33    16    37    1
    34    16    17    1
    35    39    17    1
    36    40    17    1
    37    17    18    1
    38    44    21    1
    39    18    41    1
    40    18    19    1
    41    21    19    2
    42    21    45    1
    43    19    20    1
    44    20    42    1
    45    20    43    1
