@<TRIPOS>MOLECULE
KHph6_RESPopt.out
 43 43 0 0 0
SMALL
MULLIKEN_CHARGES

@<TRIPOS>ATOM
      1 N          -0.1131    0.2369    0.1800 N.4     1  LYS1       -0.4853
      2 CA          1.3780    0.2229    0.2370 C.3     1  LYS1        0.4815
      3 C           1.7365    0.4019    1.7080 C.2     1  LYS1       -0.2427
      4 O           0.9128    0.9827    2.4511 O.2     1  LYS1       -0.5492
      5 CB          1.9471    1.3545   -0.6287 C.3     1  LYS1       -0.6968
      6 CG          3.4520    1.2018   -0.8562 C.3     1  LYS1       -0.0167
      7 CD          3.9942    2.2485   -1.8292 C.3     1  LYS1       -0.6823
      8 CE          5.4832    2.0400   -2.0563 C.3     1  LYS1       -0.3429
      9 NZ          6.0312    3.1187   -2.9367 N.4     1  LYS1       -0.4042
     10 N           2.9265   -0.0501    2.0914 N.am    2  HIS2       -0.1479
     11 CA          3.6619    0.3817    3.2847 C.3     2  HIS2       -0.2802
     12 C           5.1352    0.6832    2.8427 C.2     2  HIS2        0.2438
     13 O           5.4687    0.2703    1.6965 O.co2   2  HIS2       -0.6172
     14 CB          3.6703   -0.6787    4.3997 C.3     2  HIS2       -0.8220
     15 CG          2.4029   -0.7823    5.1951 C.2     2  HIS2        0.3924
     16 ND1         1.2196   -0.1491    4.8572 N.pl3   2  HIS2       -0.2853
     17 CE1         0.2882   -0.3904    5.7801 C.3     2  HIS2        0.3134
     18 NE2         0.8461   -1.1643    6.7138 N.pl3   2  HIS2       -0.2381
     19 CD2         2.1599   -1.4232    6.3819 C.2     2  HIS2        0.0156
     20 OXT         5.8368    1.2942    3.6837 O.co2   2  HIS2       -0.6054
     21 H1         -0.4906   -0.6254    0.5741 H       1  LYS1        0.4474
     22 H2         -0.4502    0.3309   -0.7772 H       1  LYS1        0.4306
     23 H3         -0.4691    1.0159    0.7479 H       1  LYS1        0.4479
     24 HA          1.7249   -0.7442   -0.1296 H       1  LYS1        0.2547
     25 HB1         1.7275    2.3199   -0.1585 H       1  LYS1        0.2162
     26 HB2         1.4203    1.3235   -1.5909 H       1  LYS1        0.2239
     27 HG1         3.6442    0.1930   -1.2455 H       1  LYS1        0.1672
     28 HG2         3.9977    1.2798    0.0882 H       1  LYS1        0.2043
     29 HD1         3.8316    3.2582   -1.4303 H       1  LYS1        0.1915
     30 HD2         3.4672    2.1886   -2.7896 H       1  LYS1        0.1724
     31 HE1         5.6899    1.0848   -2.5374 H       1  LYS1        0.2235
     32 HE2         6.0442    2.0876   -1.1210 H       1  LYS1        0.2263
     33 HZ1         5.5773    3.1190   -3.8541 H       1  LYS1        0.4269
     34 HZ2         7.0357    3.0066   -3.0891 H       1  LYS1        0.4414
     35 HZ3         5.8810    4.0379   -2.5156 H       1  LYS1        0.4235
     36 H           3.5587   -0.4277    1.3852 H       2  HIS2        0.4384
     37 HA          3.2173    1.3121    3.6511 H       2  HIS2        0.2112
     38 HB1         4.4810   -0.4357    5.0915 H       2  HIS2        0.2201
     39 HB2         3.9061   -1.6530    3.9554 H       2  HIS2        0.2095
     40 HD1         1.0600    0.4110    3.9937 H       2  HIS2        0.4810
     41 HE1        -0.7250   -0.0287    5.7784 H       2  HIS2        0.2625
     42 HE2         0.3759   -1.5145    7.5416 H       2  HIS2        0.4242
     43 HD2         2.8017   -2.0213    7.0028 H       2  HIS2        0.2251
@<TRIPOS>BOND
     1    33     9    1
     2    34     9    1
     3     9    35    1
     4     9     8    1
     5    30     7    1
     6    31     8    1
     7     8     7    1
     8     8    32    1
     9     7    29    1
    10     7     6    1
    11    26     5    1
    12    27     6    1
    13     6     5    1
    14     6    28    1
    15    22     1    1
    16     5    25    1
    17     5     2    1
    18    24     2    1
    19     1     2    1
    20     1    21    1
    21     1    23    1
    22     2     3    1
    23    36    10    1
    24    13    12   ar
    25     3    10   am
    26     3     4    2
    27    10    11    1
    28    12    11    1
    29    12    20   ar
    30    11    37    1
    31    11    14    1
    32    39    14    1
    33    40    16    1
    34    14    38    1
    35    14    15    1
    36    16    15    1
    37    16    17    1
    38    15    19    2
    39    41    17    1
    40    17    18    2
    41    19    18    1
    42    19    43    1
    43    18    42    1

