@<TRIPOS>MOLECULE
KK_RESPopt.out
 47 46 0 0 0
SMALL
MULLIKEN_CHARGES

@<TRIPOS>ATOM
      1 N           0.2335   -0.1313    0.0248 N.4     1  LYS1       -0.4340
      2 CA          1.7195    0.0328    0.0224 C.3     1  LYS1        0.3710
      3 C           2.0970    0.1307    1.5049 C.2     1  LYS1       -0.0325
      4 O           1.2808    0.6372    2.2971 O.2     1  LYS1       -0.5660
      5 CB          2.0869    1.2820   -0.7795 C.3     1  LYS1       -0.7376
      6 CG          3.5995    1.5082   -0.8622 C.3     1  LYS1        0.0686
      7 CD          3.9222    2.6513   -1.8238 C.3     1  LYS1       -0.6395
      8 CE          5.4026    2.7054   -2.1674 C.3     1  LYS1       -0.3916
      9 NZ          5.6309    3.7716   -3.1925 N.4     1  LYS1       -0.3922
     10 N           3.2969   -0.3400    1.8345 N.am    2  LYS2       -0.1518
     11 CA          3.8259   -0.3522    3.1970 C.3     2  LYS2       -0.2453
     12 C           5.3621   -0.5734    3.1164 C.2     2  LYS2        0.4074
     13 O           5.8139   -1.0100    2.0161 O.co2   2  LYS2       -0.6489
     14 CB          3.1161   -1.4594    4.0107 C.3     2  LYS2       -0.1101
     15 CG          3.2841   -1.3504    5.5270 C.3     2  LYS2       -0.4432
     16 CD          2.4935   -2.4429    6.2557 C.3     2  LYS2       -0.4022
     17 CE          2.6458   -2.3228    7.7642 C.3     2  LYS2       -0.4426
     18 NZ          1.8234   -3.3707    8.4533 N.4     2  LYS2       -0.4009
     19 OXT         6.0170   -0.3211    4.1614 O.co2   2  LYS2       -0.6486
     20 H1         -0.0289   -1.0340    0.4222 H       1  LYS1        0.4402
     21 H2         -0.1685   -0.0414   -0.9087 H       1  LYS1        0.4294
     22 H3         -0.1612    0.5885    0.6438 H       1  LYS1        0.4419
     23 HA          2.1561   -0.8566   -0.4374 H       1  LYS1        0.2369
     24 HB1         1.5956    2.1563   -0.3356 H       1  LYS1        0.2098
     25 HB2         1.6927    1.1481   -1.7933 H       1  LYS1        0.2136
     26 HG1         4.0790    0.5867   -1.2184 H       1  LYS1        0.1420
     27 HG2         4.0088    1.7225    0.1308 H       1  LYS1        0.1627
     28 HD1         3.6011    3.6136   -1.4103 H       1  LYS1        0.1935
     29 HD2         3.3709    2.5036   -2.7622 H       1  LYS1        0.1726
     30 HE1         5.7359    1.7603   -2.5894 H       1  LYS1        0.2269
     31 HE2         6.0325    2.9475   -1.3107 H       1  LYS1        0.2312
     32 HZ1         4.9187    3.7409   -3.9277 H       1  LYS1        0.4153
     33 HZ2         6.5475    3.6743   -3.6339 H       1  LYS1        0.4373
     34 HZ3         5.5865    4.7001   -2.7662 H       1  LYS1        0.4342
     35 H           3.9267   -0.7324    1.1387 H       2  LYS2        0.4213
     36 HA          3.6265    0.6205    3.6596 H       2  LYS2        0.2197
     37 HB1         3.4760   -2.4366    3.6642 H       2  LYS2        0.1851
     38 HB2         2.0506   -1.3972    3.7668 H       2  LYS2        0.2415
     39 HG1         2.9308   -0.3653    5.8609 H       2  LYS2        0.1287
     40 HG2         4.3437   -1.4147    5.7928 H       2  LYS2        0.1821
     41 HD1         2.8500   -3.4331    5.9437 H       2  LYS2        0.1691
     42 HD2         1.4332   -2.3712    5.9887 H       2  LYS2        0.1681
     43 HE1         2.2931   -1.3574    8.1276 H       2  LYS2        0.2251
     44 HE2         3.6789   -2.4686    8.0792 H       2  LYS2        0.2202
     45 HZ1         0.8246   -3.1892    8.3295 H       2  LYS2        0.4259
     46 HZ2         2.0122   -3.3962    9.4569 H       2  LYS2        0.4403
     47 HZ3         2.0070   -4.2996    8.0683 H       2  LYS2        0.4253
@<TRIPOS>BOND
     1    32     9    1
     2    33     9    1
     3     9    34    1
     4     9     8    1
     5    29     7    1
     6    30     8    1
     7     8     7    1
     8     8    31    1
     9     7    28    1
    10     7     6    1
    11    25     5    1
    12    26     6    1
    13    21     1    1
    14     6     5    1
    15     6    27    1
    16     5    24    1
    17     5     2    1
    18    23     2    1
    19     2     1    1
    20     2     3    1
    21     1    20    1
    22     1    22    1
    23    35    10    1
    24     3    10   am
    25     3     4    2
    26    10    11    1
    27    13    12   ar
    28    12    11    1
    29    12    19   ar
    30    11    36    1
    31    11    14    1
    32    37    14    1
    33    38    14    1
    34    14    15    1
    35    15    40    1
    36    15    39    1
    37    15    16    1
    38    41    16    1
    39    42    16    1
    40    16    17    1
    41    17    44    1
    42    17    43    1
    43    17    18    1
    44    47    18    1
    45    45    18    1
    46    18    46    1

