@<TRIPOS>MOLECULE
KR_RESPopt.out
 49 48 0 0 0
SMALL
MULLIKEN_CHARGES

@<TRIPOS>ATOM
      1 N          -0.0345   -0.1083   -0.6781 N.4     1  LYS1       -0.4191
      2 CA          1.4162    0.0135   -0.3414 C.3     1  LYS1        0.2470
      3 C           1.5050    0.1328    1.1832 C.2     1  LYS1        0.1918
      4 O           0.5696    0.6566    1.8134 O.2     1  LYS1       -0.5709
      5 CB          2.0023    1.2469   -1.0386 C.3     1  LYS1       -0.7660
      6 CG          3.5271    1.3050   -0.9069 C.3     1  LYS1        0.0775
      7 CD          4.1470    2.4388   -1.7266 C.3     1  LYS1       -0.6817
      8 CE          5.6648    2.3812   -1.6179 C.3     1  LYS1       -0.3481
      9 NZ          6.2930    3.4409   -2.4679 N.4     1  LYS1       -0.3939
     10 N           2.6529   -0.2866    1.7099 N.am    2  ARG2       -0.1570
     11 CA          3.0850   -0.0377    3.0815 C.3     2  ARG2       -0.5264
     12 C           4.6396    0.0461    3.0727 C.2     2  ARG2        0.3395
     13 O           5.2258   -0.4678    2.0735 O.co2   2  ARG2       -0.6448
     14 CB          2.5346   -1.1400    4.0088 C.3     2  ARG2        0.0332
     15 CG          2.8884   -0.9601    5.4861 C.3     2  ARG2       -0.3290
     16 CD          2.0929   -1.9242    6.3619 C.3     2  ARG2       -0.7977
     17 NE          2.5795   -1.8525    7.7407 N.pl3   2  ARG2       -0.2622
     18 CZ          1.9215   -2.3103    8.8092 C.cat   2  ARG2        0.6009
     19 NH2         2.5130   -2.2870   10.0087 N.pl3   2  ARG2       -0.5091
     20 NH1         0.6750   -2.7801    8.6976 N.pl3   2  ARG2       -0.5987
     21 OXT         5.1744    0.6116    4.0609 O.co2   2  ARG2       -0.6335
     22 H1         -0.4023   -1.0108   -0.3680 H       1  LYS1        0.4461
     23 H2         -0.1894   -0.0196   -1.6835 H       1  LYS1        0.4254
     24 H3         -0.5626    0.6178   -0.1804 H       1  LYS1        0.4442
     25 HA          1.9136   -0.8903   -0.7034 H       1  LYS1        0.2425
     26 HB1         1.5419    2.1486   -0.6201 H       1  LYS1        0.2126
     27 HB2         1.7275    1.1893   -2.0974 H       1  LYS1        0.2132
     28 HG1         3.9423    0.3473   -1.2485 H       1  LYS1        0.1556
     29 HG2         3.8168    1.4153    0.1433 H       1  LYS1        0.1613
     30 HD1         3.7976    3.4114   -1.3586 H       1  LYS1        0.1890
     31 HD2         3.8493    2.3497   -2.7769 H       1  LYS1        0.1788
     32 HE1         6.0480    1.4242   -1.9711 H       1  LYS1        0.2296
     33 HE2         6.0006    2.5451   -0.5940 H       1  LYS1        0.2339
     34 HZ1         6.1414    3.2473   -3.4602 H       1  LYS1        0.4277
     35 HZ2         7.3014    3.4932   -2.3121 H       1  LYS1        0.4389
     36 HZ3         5.8931    4.3621   -2.2782 H       1  LYS1        0.4254
     37 H           3.3862   -0.6756    1.1218 H       2  ARG2        0.4292
     38 HA          2.6850    0.9296    3.4020 H       2  ARG2        0.1981
     39 HB1         2.9024   -2.1128    3.6590 H       2  ARG2        0.1756
     40 HB2         1.4445   -1.1414    3.8880 H       2  ARG2        0.2014
     41 HG1         2.6827    0.0682    5.8038 H       2  ARG2        0.1944
     42 HG2         3.9604   -1.1289    5.6323 H       2  ARG2        0.1719
     43 HD1         2.1823   -2.9521    5.9890 H       2  ARG2        0.2336
     44 HD2         1.0354   -1.6421    6.3457 H       2  ARG2        0.1803
     45 HE          3.5543   -1.6118    7.8729 H       2  ARG2        0.3989
     46 HH21        3.4376   -1.8953   10.1149 H       2  ARG2        0.3734
     47 HH22        2.0435   -2.6508   10.8251 H       2  ARG2        0.4036
     48 HH11        0.2348   -2.9000    7.7986 H       2  ARG2        0.3600
     49 HH12        0.2021   -3.1564    9.5061 H       2  ARG2        0.4038
@<TRIPOS>BOND
     1    34     9    1
     2    31     7    1
     3     9    35    1
     4     9    36    1
     5     9     8    1
     6    27     5    1
     7    32     8    1
     8     7     8    1
     9     7    30    1
    10     7     6    1
    11    23     1    1
    12     8    33    1
    13    28     6    1
    14     5     6    1
    15     5    26    1
    16     5     2    1
    17     6    29    1
    18    25     2    1
    19     1    22    1
    20     1     2    1
    21     1    24    1
    22     2     3    1
    23    37    10    1
    24     3    10   am
    25     3     4    2
    26    10    11    1
    27    13    12   ar
    28    12    11    1
    29    12    21   ar
    30    11    38    1
    31    11    14    1
    32    39    14    1
    33    40    14    1
    34    14    15    1
    35    15    42    1
    36    15    41    1
    37    15    16    1
    38    43    16    1
    39    44    16    1
    40    16    17    1
    41    17    45    1
    42    17    18    1
    43    48    20    1
    44    20    18    2
    45    20    49    1
    46    18    19    1
    47    19    46    1
    48    19    47    1

