@<TRIPOS>MOLECULE
RH_RESPopt.out
 45 45 0 0 0
SMALL
MULLIKEN_CHARGES

@<TRIPOS>ATOM
      1 N          -0.1619    0.0177   -0.0380 N.4     1  ARG1       -0.4977
      2 CA          1.3274   -0.0332   -0.0042 C.3     1  ARG1        0.4437
      3 C           1.7129    0.0653    1.4701 C.2     1  ARG1       -0.1950
      4 O           0.9176    0.6333    2.2532 O.2     1  ARG1       -0.5587
      5 CB          1.9129    1.1249   -0.8176 C.3     1  ARG1       -0.6633
      6 CG          3.4186    0.9614   -1.0471 C.3     1  ARG1       -0.0471
      7 CD          3.9250    2.0508   -1.9844 C.3     1  ARG1       -0.8458
      8 NE          5.3648    1.9247   -2.1920 N.pl3   1  ARG1       -0.2753
      9 CZ          6.0185    2.3284   -3.2886 C.cat   1  ARG1        0.4547
     10 NH2         7.3556    2.3290   -3.2886 N.pl3   1  ARG1       -0.4699
     11 NH1         5.3562    2.7504   -4.3689 N.pl3   1  ARG1       -0.5612
     12 N           2.8962   -0.4360    1.7934 N.am    2  HIS2       -0.1167
     13 CA          3.6468   -0.1691    3.0186 C.3     2  HIS2       -0.3964
     14 C           5.1663   -0.1660    2.6301 C.2     2  HIS2        0.4540
     15 O           5.4342   -0.4114    1.4188 O.co2   2  HIS2       -0.6390
     16 CB          3.3437   -1.1942    4.1453 C.3     2  HIS2       -0.7671
     17 CG          2.3786   -0.6959    5.1712 C.2     2  HIS2        0.2307
     18 ND1         1.2439    0.0272    4.8422 N.pl3   2  HIS2       -0.3034
     19 CE1         0.5976    0.3902    5.9488 C.3     2  HIS2        0.2728
     20 NE2         1.2852   -0.0886    6.9871 N.pl3   2  HIS2       -0.2170
     21 CD2         2.3977   -0.7728    6.5390 C.2     2  HIS2        0.0472
     22 OXT         5.9621    0.0955    3.5624 O.co2   2  HIS2       -0.6201
     23 H1         -0.5515   -0.8531    0.3272 H       1  ARG1        0.4466
     24 H2         -0.5172    0.1582   -0.9830 H       1  ARG1        0.4321
     25 H3         -0.4801    0.7748    0.5781 H       1  ARG1        0.4444
     26 HA          1.6467   -0.9890   -0.4145 H       1  ARG1        0.2551
     27 HB1         1.7067    2.0719   -0.3063 H       1  ARG1        0.2117
     28 HB2         1.3911    1.1396   -1.7832 H       1  ARG1        0.2349
     29 HG1         3.6167   -0.0283   -1.4772 H       1  ARG1        0.2081
     30 HG2         3.9695    1.0119   -0.1021 H       1  ARG1        0.2451
     31 HD1         3.6913    3.0405   -1.5767 H       1  ARG1        0.2283
     32 HD2         3.4140    1.9619   -2.9449 H       1  ARG1        0.1212
     33 HE          5.9279    1.7490   -1.3678 H       1  ARG1        0.4069
     34 HH21        7.8620    1.9198   -2.5165 H       1  ARG1        0.3713
     35 HH22        7.8644    2.5140   -4.1413 H       1  ARG1        0.4004
     36 HH11        4.3488    2.7307   -4.4066 H       1  ARG1        0.3598
     37 HH12        5.8562    2.9439   -5.2251 H       1  ARG1        0.4056
     38 H           3.5121   -0.7766    1.0529 H       2  HIS2        0.4145
     39 HA          3.4019    0.8426    3.3589 H       2  HIS2        0.2161
     40 HB1         4.2708   -1.4433    4.6649 H       2  HIS2        0.2141
     41 HB2         2.9695   -2.1100    3.6760 H       2  HIS2        0.2111
     42 HD1         1.0185    0.3200    3.8689 H       2  HIS2        0.5297
     43 HE1        -0.3111    0.9685    5.9967 H       2  HIS2        0.2589
     44 HE2         1.0171    0.0181    7.9579 H       2  HIS2        0.4248
     45 HD2         3.0976   -1.2416    7.2104 H       2  HIS2        0.2297
@<TRIPOS>BOND
     1    37    11    1
     2    36    11    1
     3    11     9    2
     4    35    10    1
     5     9    10    1
     6     9     8    1
     7    10    34    1
     8    32     7    1
     9     8     7    1
    10     8    33    1
    11     7    31    1
    12     7     6    1
    13    28     5    1
    14    29     6    1
    15     6     5    1
    16     6    30    1
    17    24     1    1
    18     5    27    1
    19     5     2    1
    20    26     2    1
    21     1     2    1
    22     1    23    1
    23     1    25    1
    24     2     3    1
    25    38    12    1
    26    15    14   ar
    27     3    12   am
    28     3     4    2
    29    12    13    1
    30    14    13    1
    31    14    22   ar
    32    13    39    1
    33    13    16    1
    34    41    16    1
    35    42    18    1
    36    16    40    1
    37    16    17    1
    38    18    17    1
    39    18    19    1
    40    17    21    2
    41    19    43    1
    42    19    20    2
    43    21    20    1
    44    21    45    1
    45    20    44    1

