@<TRIPOS>MOLECULE
RK_RESPopt.out
 49 48 0 0 0
SMALL
MULLIKEN_CHARGES

@<TRIPOS>ATOM
      1 N          -0.3976    0.2550   -0.2800 N.4     1  ARG1       -0.4180
      2 CA          1.0809    0.0647   -0.2261 C.3     1  ARG1        0.2543
      3 C           1.4805    0.1665    1.2476 C.2     1  ARG1        0.2000
      4 O           0.8153    0.8847    2.0134 O.2     1  ARG1       -0.5638
      5 CB          1.7686    1.1416   -1.0715 C.3     1  ARG1       -0.8188
      6 CG          3.2910    0.9682   -1.0807 C.3     1  ARG1        0.2204
      7 CD          3.9401    1.8879   -2.1059 C.3     1  ARG1       -1.2343
      8 NE          5.3960    1.7539   -2.0259 N.pl3   1  ARG1       -0.2658
      9 CZ          6.2444    2.2934   -2.9073 C.cat   1  ARG1        0.5903
     10 NH2         7.5639    2.1475   -2.7478 N.pl3   1  ARG1       -0.4847
     11 NH1         5.7749    2.9749   -3.9558 N.pl3   1  ARG1       -0.5834
     12 N           2.5857   -0.5043    1.5694 N.am    2  LYS2       -0.0881
     13 CA          3.3212   -0.3328    2.8192 C.3     2  LYS2       -0.3824
     14 C           4.8387   -0.3308    2.4795 C.2     2  LYS2        0.2574
     15 O           5.1766   -0.9268    1.4138 O.co2   2  LYS2       -0.6315
     16 CB          2.9371   -1.4500    3.8107 C.3     2  LYS2       -0.1231
     17 CG          3.4338   -1.2334    5.2418 C.3     2  LYS2       -0.3059
     18 CD          2.9252   -2.3351    6.1749 C.3     2  LYS2       -0.4821
     19 CE          3.3520   -2.1167    7.6167 C.3     2  LYS2       -0.4115
     20 NZ          2.7124   -3.1610    8.4835 N.4     2  LYS2       -0.4081
     21 OXT         5.5967    0.2469    3.3023 O.co2   2  LYS2       -0.6281
     22 H1         -0.8890   -0.5473    0.1250 H       1  ARG1        0.4472
     23 H2         -0.7229    0.3743   -1.2386 H       1  ARG1        0.4270
     24 H3         -0.6537    1.0802    0.2766 H       1  ARG1        0.4445
     25 HA          1.3038   -0.9267   -0.6185 H       1  ARG1        0.2345
     26 HB1         1.5084    2.1304   -0.6805 H       1  ARG1        0.2097
     27 HB2         1.3780    1.0658   -2.0919 H       1  ARG1        0.2113
     28 HG1         3.5419   -0.0769   -1.3034 H       1  ARG1        0.1935
     29 HG2         3.7029    1.1868   -0.0896 H       1  ARG1        0.2435
     30 HD1         3.6513    2.9265   -1.9140 H       1  ARG1        0.2355
     31 HD2         3.6175    1.6187   -3.1150 H       1  ARG1        0.2107
     32 HE          5.7937    1.3007   -1.2124 H       1  ARG1        0.4565
     33 HH21        7.9426    1.6016   -1.9874 H       1  ARG1        0.3732
     34 HH22        8.2049    2.5384   -3.4226 H       1  ARG1        0.4066
     35 HH11        4.7884    3.1483   -4.0657 H       1  ARG1        0.3656
     36 HH12        6.4089    3.3706   -4.6344 H       1  ARG1        0.4111
     37 H           3.1037   -1.0005    0.8486 H       2  LYS2        0.4421
     38 HA          3.0436    0.6373    3.2405 H       2  LYS2        0.2071
     39 HB1         3.3081   -2.4103    3.4288 H       2  LYS2        0.1744
     40 HB2         1.8419   -1.5080    3.8197 H       2  LYS2        0.2236
     41 HG1         3.0803   -0.2582    5.6033 H       2  LYS2        0.1363
     42 HG2         4.5285   -1.2015    5.2617 H       2  LYS2        0.1813
     43 HD1         3.2964   -3.3148    5.8440 H       2  LYS2        0.1705
     44 HD2         1.8284   -2.3675    6.1364 H       2  LYS2        0.1626
     45 HE1         3.0216   -1.1490    7.9931 H       2  LYS2        0.2251
     46 HE2         4.4308   -2.2069    7.7454 H       2  LYS2        0.2201
     47 HZ1         1.6959   -3.0447    8.4961 H       2  LYS2        0.4257
     48 HZ2         3.0470   -3.1118    9.4467 H       2  LYS2        0.4401
     49 HZ3         2.8986   -4.0980    8.1211 H       2  LYS2        0.4278
@<TRIPOS>BOND
     1    36    11    1
     2    35    11    1
     3    11     9    2
     4    34    10    1
     5    31     7    1
     6     9    10    1
     7     9     8    1
     8    10    33    1
     9     7     8    1
    10     7    30    1
    11     7     6    1
    12    27     5    1
    13     8    32    1
    14    28     6    1
    15    23     1    1
    16     6     5    1
    17     6    29    1
    18     5    26    1
    19     5     2    1
    20    25     2    1
    21     1     2    1
    22     1    22    1
    23     1    24    1
    24     2     3    1
    25    37    12    1
    26     3    12   am
    27     3     4    2
    28    15    14   ar
    29    12    13    1
    30    14    13    1
    31    14    21   ar
    32    13    38    1
    33    13    16    1
    34    39    16    1
    35    16    40    1
    36    16    17    1
    37    17    42    1
    38    17    41    1
    39    17    18    1
    40    43    18    1
    41    44    18    1
    42    18    19    1
    43    19    46    1
    44    19    45    1
    45    19    20    1
    46    49    20    1
    47    20    47    1
    48    20    48    1

