@<TRIPOS>MOLECULE
RR_RESPopt.out
 51 50 0 0 0
SMALL
MULLIKEN_CHARGES

@<TRIPOS>ATOM
      1 N          -0.4069    0.1801   -0.8627 N.4     1  ARG1       -0.4292
      2 CA          1.0322   -0.0328   -0.5287 C.3     1  ARG1        0.3667
      3 C           1.1632    0.2415    0.9758 C.2     1  ARG1        0.1841
      4 O           0.3409    0.9895    1.5301 O.2     1  ARG1       -0.5551
      5 CB          1.8615    0.9500   -1.3629 C.3     1  ARG1       -0.8681
      6 CG          3.3729    0.7746   -1.1965 C.3     1  ARG1        0.1648
      7 CD          4.1148    1.7495   -2.1018 C.3     1  ARG1       -1.1637
      8 NE          5.5569    1.6155   -1.9010 N.pl3   1  ARG1       -0.2617
      9 CZ          6.4760    2.1697   -2.6996 C.cat   1  ARG1        0.5906
     10 NH2         7.7755    2.0360   -2.4148 N.pl3   1  ARG1       -0.4855
     11 NH1         6.1018    2.8269   -3.7993 N.pl3   1  ARG1       -0.5783
     12 N           2.2126   -0.3327    1.5658 N.am    2  ARG2       -0.0865
     13 CA          2.7163    0.0184    2.8925 C.3     2  ARG2       -0.3837
     14 C           4.2669    0.1149    2.7884 C.2     2  ARG2        0.0913
     15 O           4.8102   -0.6189    1.9107 O.co2   2  ARG2       -0.6259
     16 CB          2.2614   -1.0370    3.9205 C.3     2  ARG2       -0.1371
     17 CG          2.7044   -0.7436    5.3541 C.3     2  ARG2       -0.2182
     18 CD          2.2350   -1.8379    6.3099 C.3     2  ARG2       -0.8269
     19 NE          2.8168   -1.6021    7.6342 N.pl3   2  ARG2       -0.2685
     20 CZ          2.4536   -2.2476    8.7464 C.cat   2  ARG2        0.5851
     21 NH2         3.2079   -2.1583    9.8466 N.pl3   2  ARG2       -0.4971
     22 NH1         1.3502   -3.0037    8.7673 N.pl3   2  ARG2       -0.5763
     23 OXT         4.8414    0.8953    3.5912 O.co2   2  ARG2       -0.6098
     24 H1         -1.0009   -0.5521   -0.4644 H       1  ARG1        0.4500
     25 H2         -0.5459    0.1971   -1.8747 H       1  ARG1        0.4250
     26 H3         -0.7009    1.0723   -0.4532 H       1  ARG1        0.4392
     27 HA          1.2857   -1.0673   -0.7599 H       1  ARG1        0.2408
     28 HB1         1.5847    1.9712   -1.0769 H       1  ARG1        0.2140
     29 HB2         1.5870    0.8112   -2.4147 H       1  ARG1        0.2111
     30 HG1         3.6545   -0.2569   -1.4340 H       1  ARG1        0.2000
     31 HG2         3.6685    0.9600   -0.1583 H       1  ARG1        0.2846
     32 HD1         3.8024    2.7747   -1.8786 H       1  ARG1        0.2335
     33 HD2         3.8844    1.5406   -3.1508 H       1  ARG1        0.1999
     34 HE          5.8834    1.2353   -1.0217 H       1  ARG1        0.4322
     35 HH21        8.0675    1.5919   -1.5571 H       1  ARG1        0.3710
     36 HH22        8.4717    2.5057   -2.9751 H       1  ARG1        0.4047
     37 HH11        5.1294    2.9701   -4.0178 H       1  ARG1        0.3596
     38 HH12        6.7962    3.2153   -4.4206 H       1  ARG1        0.4129
     39 H           2.8755   -0.8737    1.0163 H       2  ARG2        0.4280
     40 HA          2.3108    0.9958    3.1666 H       2  ARG2        0.1953
     41 HB1         2.6486   -2.0165    3.6104 H       2  ARG2        0.1783
     42 HB2         1.1667   -1.0906    3.8756 H       2  ARG2        0.2007
     43 HG1         2.3129    0.2259    5.6837 H       2  ARG2        0.1969
     44 HG2         3.7978   -0.6814    5.3996 H       2  ARG2        0.1897
     45 HD1         2.5481   -2.8219    5.9413 H       2  ARG2        0.2268
     46 HD2         1.1425   -1.8299    6.3860 H       2  ARG2        0.1662
     47 HE          3.7159   -1.1359    7.6554 H       2  ARG2        0.3924
     48 HH21        4.1074   -1.7001    9.8228 H       2  ARG2        0.3762
     49 HH22        2.9092   -2.5926   10.7076 H       2  ARG2        0.4002
     50 HH11        0.6809   -2.9619    8.0135 H       2  ARG2        0.3533
     51 HH12        1.0539   -3.4162    9.6391 H       2  ARG2        0.4067
@<TRIPOS>BOND
     1    38    11    1
     2    37    11    1
     3    11     9    2
     4    33     7    1
     5    36    10    1
     6     9    10    1
     7     9     8    1
     8    10    35    1
     9    29     5    1
    10     7     8    1
    11     7    32    1
    12     7     6    1
    13     8    34    1
    14    25     1    1
    15    30     6    1
    16     5     6    1
    17     5    28    1
    18     5     2    1
    19     6    31    1
    20     1     2    1
    21     1    24    1
    22     1    26    1
    23    27     2    1
    24     2     3    1
    25     3     4    2
    26     3    12   am
    27    39    12    1
    28    12    13    1
    29    15    14   ar
    30    14    13    1
    31    14    23   ar
    32    13    40    1
    33    13    16    1
    34    41    16    1
    35    42    16    1
    36    16    17    1
    37    17    44    1
    38    17    43    1
    39    17    18    1
    40    45    18    1
    41    18    46    1
    42    18    19    1
    43    19    47    1
    44    19    20    1
    45    50    22    1
    46    20    22    2
    47    20    21    1
    48    22    51    1
    49    48    21    1
    50    21    49    1
